reduced_networks/ieee37/67pct/dss/Branches.dss
! Radial Kron-equivalent series elements
new Reactor.kr_2_13 phases=1 bus1=799.2 bus2=799r.2 rmatrix=[0.0009999999999999998] xmatrix=[1.77635683940025e-21]
new Reactor.kr_3_4 phases=3 bus1=701.1.2.3 bus2=702.1.2.3 rmatrix=[0.08638181855999999 | 0.02961818207999998 0.08160000000000003 | 0.02243636351999999 0.02961818207999999 0.08638181856000002] xmatrix=[0.05405454528000003 | -0.005927272320000019 0.04869090912000002 | -0.01103636352000001 -0.005927272320000001 0.05405454527999999]
new Reactor.kr_3_13 phases=3 bus1=701.1.2.3 bus2=799r.1.2.3 rmatrix=[0.10252083395 | 0.02358049220000002 0.0927102266 | 0.01180776560000002 0.0235804922 0.10252083395] xmatrix=[0.0691297344 | -0.01289393945 0.06657196879999998 | -0.01461079495 -0.01289393945000001 0.06912973439999999]
new Reactor.kr_4_5 phases=3 bus1=702.1.2.3 bus2=703.1.2.3 rmatrix=[0.1187750005200001 | 0.0407250003600001 0.1122000000000001 | 0.03084999984 0.04072500036000019 0.11877500052] xmatrix=[0.07432499976000008 | -0.008149999439999984 0.06695000004000008 | -0.01517499983999999 -0.008149999439999969 0.07432499976000008]
new Reactor.kr_4_7 phases=3 bus1=702.1.2.3 bus2=704.1.2.3 rmatrix=[0.215599912814041 | 0.08118327673836778 0.2170332472199933 | 0.07641661560906786 0.08118327673836825 0.215599912814041] xmatrix=[0.1118834008710965 | 0.03518338311197525 0.1054334036743192 | 0.02535004903482231 0.03518338311197584 0.1118834008710963]
new Reactor.kr_5_6 phases=3 bus1=703.1.2.3 bus2=730.1.2.3 rmatrix=[0.147 | 0.0553522728 0.1479772728 | 0.05210227260000001 0.05535227279999998 0.147] xmatrix=[0.07628409120000004 | 0.02398863660000002 0.07188636359999998 | 0.01728409080000003 0.02398863660000001 0.07628409120000003]
new Reactor.kr_6_10 phases=3 bus1=730.1.2.3 bus2=708.1.2.3 rmatrix=[0.1273999417840483 | 0.04797193188966362 0.128246912187814 | 0.04515526894169796 0.04797193188966294 0.1273999417840473] xmatrix=[0.06611292385365289 | 0.0207901847344612 0.06230156212566124 | 0.01497957821583239 0.02079018473446089 0.06611292385365232]
new Reactor.kr_7_8 phases=3 bus1=704.1.2.3 bus2=720.1.2.3 rmatrix=[0.196 | 0.07380303039999972 0.1973030303999997 | 0.06946969679999994 0.07380303039999968 0.1959999999999997] xmatrix=[0.1017121215999998 | 0.0319848487999999 0.09584848479999997 | 0.02304545439999988 0.03198484879999992 0.1017121216000001]
new Reactor.kr_8_9 phases=3 bus1=720.1.2.3 bus2=707.1.2.3 rmatrix=[0.3650727274400004 | 0.09067575752000041 0.3670939398400006 | 0.08583181860000039 0.09067575752000015 0.3650727274399996] xmatrix=[0.13517727256 | 0.04770757611999953 0.12890454512 | 0.03699166636000032 0.04770757612000071 0.1351772725600007]
new Reactor.kr_10_11 phases=3 bus1=708.1.2.3 bus2=734.1.2.3 rmatrix=[0.2155999165399368 | 0.08118327916151478 0.2170332509046091 | 0.07641661778303946 0.08118327916151458 0.2155999165399369] xmatrix=[0.1118833980031004 | 0.03518338099949731 0.105433400666014 | 0.02535004693247891 0.03518338099949742 0.1118833980031006]
new Reactor.kr_11_12 phases=3 bus1=734.1.2.3 bus2=737.1.2.3 rmatrix=[0.1567999999999998 | 0.05904242432000002 0.1578424243199997 | 0.05557575743999994 0.05904242431999972 0.1567999999999998] xmatrix=[0.0813696972799999 | 0.02558787904000006 0.07667878784000018 | 0.01843636352000014 0.02558787904000004 0.08136969728000011]
